<?xml version="1.0" encoding="UTF-8"?>
<!-- generated on 2021-01-26 21:16:53.404746 by randomTrips.py v1_6_0+0003-190709904e
  options: -n onnut.net.xml <doubleminus>seed 42 <doubleminus>fringe-factor 5 -p 1.595977 -o onnut.trips.xml -e 3600 <doubleminus>vehicle-class passenger <doubleminus>vclass passenger <doubleminus>prefix veh <doubleminus>min-distance 300 <doubleminus>trip-attributes departLane="best" <doubleminus>fringe-start-attributes departSpeed="max" <doubleminus>allow-fringe.min-length 1000 <doubleminus>lanes <doubleminus>validate
-->
<routes xmlns:xsi="http://www.w3.org/2001/XMLSchema-instance" xsi:noNamespaceSchemaLocation="http://sumo.dlr.de/xsd/routes_file.xsd">
    <vType id="veh_passenger" vClass="passenger"/>
    <trip id="veh0" depart="0.00" from="312217346#1" to="-113135397#24" departLane="best" type="veh_passenger"/>
    <trip id="veh1" depart="1.60" from="-622812955#0" to="-450150577" departLane="best" type="veh_passenger"/>
    <trip id="veh2" depart="3.19" from="450149632#0" to="318745828#3" departLane="best" type="veh_passenger"/>
    <trip id="veh3" depart="4.79" from="751455690#0" to="-156357489#2" departLane="best" type="veh_passenger" departSpeed="max"/>
    <trip id="veh4" depart="6.38" from="153225686#0" to="-113135397#4" departLane="best" type="veh_passenger" departSpeed="max"/>
    <trip id="veh5" depart="7.98" from="-113135397#24" to="-442905889" departLane="best" type="veh_passenger"/>
    <trip id="veh6" depart="9.58" from="318706321#2" to="156591307#0" departLane="best" type="veh_passenger"/>
    <trip id="veh7" depart="11.17" from="-450150576#0" to="210884222" departLane="best" type="veh_passenger"/>
    <trip id="veh8" depart="12.77" from="622812955#1" to="-113135397#13" departLane="best" type="veh_passenger"/>
    <trip id="veh9" depart="14.36" from="622812930#2" to="336620983#5" departLane="best" type="veh_passenger"/>
    <trip id="veh10" depart="15.96" from="113135397#13" to="-318706323" departLane="best" type="veh_passenger"/>
    <trip id="veh11" depart="17.56" from="824456407#0" to="113135397#11" departLane="best" type="veh_passenger"/>
    <trip id="veh12" depart="19.15" from="710398211" to="25044852#1" departLane="best" type="veh_passenger"/>
    <trip id="veh13" depart="20.75" from="622812933" to="44629574#4" departLane="best" type="veh_passenger"/>
    <trip id="veh14" depart="22.34" from="156591254#0" to="824456409#0" departLane="best" type="veh_passenger"/>
    <trip id="veh15" depart="23.94" from="113135474#0" to="185007810#1" departLane="best" type="veh_passenger"/>
    <trip id="veh16" depart="25.54" from="693789399#1" to="26576008" departLane="best" type="veh_passenger"/>
    <trip id="veh17" depart="27.13" from="750035412#1-AddedOffRampEdge" to="210884222" departLane="best" type="veh_passenger"/>
    <trip id="veh18" depart="28.73" from="-463223680#1" to="-693789399#2" departLane="best" type="veh_passenger"/>
    <trip id="veh19" depart="30.32" from="-156357473#2" to="-484458032" departLane="best" type="veh_passenger"/>
    <trip id="veh20" depart="31.92" from="-156357497#1" to="-622812963" departLane="best" type="veh_passenger"/>
    <trip id="veh21" depart="33.52" from="312217346#0.2926" to="113135397#7" departLane="best" type="veh_passenger" departSpeed="max"/>
    <trip id="veh22" depart="35.11" from="-61232401#7" to="824116560#2" departLane="best" type="veh_passenger"/>
    <trip id="veh23" depart="36.71" from="318706320" to="25044852#1" departLane="best" type="veh_passenger"/>
    <trip id="veh24" depart="38.30" from="-318745826" to="113135484#0" departLane="best" type="veh_passenger"/>
    <trip id="veh25" depart="39.90" from="824816456" to="300825126#0" departLane="best" type="veh_passenger"/>
    <trip id="veh26" depart="41.50" from="186761791#1" to="319148810#0" departLane="best" type="veh_passenger"/>
    <trip id="veh27" depart="43.09" from="710018508" to="484458029#1" departLane="best" type="veh_passenger"/>
    <trip id="veh28" depart="44.69" from="-484458029#0" to="-113135397#6" departLane="best" type="veh_passenger"/>
    <trip id="veh29" depart="46.28" from="-718153398#7" to="-620064364" departLane="best" type="veh_passenger"/>
    <trip id="veh30" depart="47.88" from="-44629574#4" to="824116561" departLane="best" type="veh_passenger"/>
    <trip id="veh31" depart="49.48" from="751454884#3" to="-718889435" departLane="best" type="veh_passenger"/>
    <trip id="veh32" depart="51.07" from="318745822#0" to="113139330" departLane="best" type="veh_passenger"/>
    <trip id="veh33" depart="52.67" from="824116538#2" to="156357410" departLane="best" type="veh_passenger"/>
    <trip id="veh34" depart="54.26" from="-61232401#5" to="-523236379" departLane="best" type="veh_passenger"/>
    <trip id="veh35" depart="55.86" from="210884297#0" to="-61232401#4" departLane="best" type="veh_passenger"/>
    <trip id="veh36" depart="57.46" from="25044852#0-AddedOffRampEdge" to="751454885#3" departLane="best" type="veh_passenger" departSpeed="max"/>
    <trip id="veh37" depart="59.05" from="124937432.3472" to="-450150576#0" departLane="best" type="veh_passenger" departSpeed="max"/>
    <trip id="veh38" depart="60.65" from="93727607#0" to="156515654" departLane="best" type="veh_passenger"/>
    <trip id="veh39" depart="62.24" from="-156357489#6" to="-131467340#1" departLane="best" type="veh_passenger"/>
    <trip id="veh40" depart="63.84" from="-156515639" to="28504758" departLane="best" type="veh_passenger"/>
    <trip id="veh41" depart="65.44" from="61232377#0" to="153225684#6" departLane="best" type="veh_passenger"/>
    <trip id="veh42" depart="67.03" from="-156357415#3" to="113135484#2" departLane="best" type="veh_passenger"/>
    <trip id="veh43" depart="68.63" from="824456409#0" to="710398211" departLane="best" type="veh_passenger"/>
    <trip id="veh44" depart="70.22" from="-113135397#16" to="44572159#0" departLane="best" type="veh_passenger"/>
    <trip id="veh45" depart="71.82" from="336620983#0" to="156591249#1" departLane="best" type="veh_passenger" departSpeed="max"/>
    <trip id="veh46" depart="73.41" from="-156515654" to="153225684#7" departLane="best" type="veh_passenger"/>
    <trip id="veh47" depart="75.01" from="156261506" to="824456406" departLane="best" type="veh_passenger"/>
    <trip id="veh48" depart="76.61" from="751454884#3" to="-61232401#5" departLane="best" type="veh_passenger"/>
    <trip id="veh49" depart="78.20" from="156496150" to="-319150827" departLane="best" type="veh_passenger"/>
    <trip id="veh50" depart="79.80" from="824116538#1" to="718889435" departLane="best" type="veh_passenger"/>
    <trip id="veh51" depart="81.39" from="-693789444" to="300825126#0" departLane="best" type="veh_passenger"/>
    <trip id="veh52" depart="82.99" from="484458029#1" to="156591254#1" departLane="best" type="veh_passenger"/>
    <trip id="veh53" depart="84.59" from="521480905#7" to="156591171#0" departLane="best" type="veh_passenger"/>
    <trip id="veh54" depart="86.18" from="-113135397#2" to="824116560#1" departLane="best" type="veh_passenger"/>
    <trip id="veh55" depart="87.78" from="751454885#0" to="692953427" departLane="best" type="veh_passenger"/>
    <trip id="veh56" depart="89.37" from="-710398211" to="-156261505" departLane="best" type="veh_passenger"/>
    <trip id="veh57" depart="90.97" from="751454885#0" to="824116561-AddedOffRampEdge" departLane="best" type="veh_passenger"/>
    <trip id="veh58" depart="92.57" from="-156357436" to="450150576#7" departLane="best" type="veh_passenger"/>
    <trip id="veh59" depart="94.16" from="484873520" to="-156591249#0" departLane="best" type="veh_passenger"/>
    <trip id="veh60" depart="95.76" from="156357473#2" to="185007810#0" departLane="best" type="veh_passenger"/>
    <trip id="veh61" depart="97.35" from="-61232401#5" to="750035412#1" departLane="best" type="veh_passenger"/>
    <trip id="veh62" depart="98.95" from="153225686#0" to="-44629574#6" departLane="best" type="veh_passenger" departSpeed="max"/>
    <trip id="veh63" depart="100.55" from="-44572159#0" to="-710591503#1" departLane="best" type="veh_passenger"/>
    <trip id="veh64" depart="102.14" from="93727605#0" to="312217346#0-AddedOffRampEdge" departLane="best" type="veh_passenger"/>
    <trip id="veh65" depart="103.74" from="153225686#3" to="156515728#0" departLane="best" type="veh_passenger"/>
    <trip id="veh66" depart="105.33" from="-156515728#1" to="-450150578" departLane="best" type="veh_passenger"/>
    <trip id="veh67" depart="106.93" from="113135397#11" to="210884222" departLane="best" type="veh_passenger"/>
    <trip id="veh68" depart="108.53" from="-484458029#1" to="-450150576#10" departLane="best" type="veh_passenger"/>
    <trip id="veh69" depart="110.12" from="-156357442#0" to="28504780#1-AddedOffRampEdge" departLane="best" type="veh_passenger"/>
    <trip id="veh70" depart="111.72" from="-463223680#2" to="788416575#0" departLane="best" type="veh_passenger"/>
    <trip id="veh71" depart="113.31" from="750035412#1" to="-156357442#0" departLane="best" type="veh_passenger"/>
    <trip id="veh72" depart="114.91" from="-504358028" to="318745820" departLane="best" type="veh_passenger"/>
    <trip id="veh73" depart="116.51" from="-450150566" to="-156591254#0" departLane="best" type="veh_passenger"/>
    <trip id="veh74" depart="118.10" from="824116560#2" to="185007810#5" departLane="best" type="veh_passenger"/>
    <trip id="veh75" depart="119.70" from="156357473#0" to="514073456#0" departLane="best" type="veh_passenger"/>
    <trip id="veh76" depart="121.29" from="622812952" to="-442887015#0" departLane="best" type="veh_passenger"/>
    <trip id="veh77" depart="122.89" from="-156357493#2" to="153225684#7" departLane="best" type="veh_passenger"/>
    <trip id="veh78" depart="124.49" from="153225686#0" to="156357437#1" departLane="best" type="veh_passenger" departSpeed="max"/>
    <trip id="veh79" depart="126.08" from="824816455" to="-156357493#4" departLane="best" type="veh_passenger"/>
    <trip id="veh80" depart="127.68" from="124937432.3472" to="113135397#13" departLane="best" type="veh_passenger" departSpeed="max"/>
    <trip id="veh81" depart="129.27" from="750035412#1-AddedOffRampEdge" to="-523236410" departLane="best" type="veh_passenger"/>
    <trip id="veh82" depart="130.87" from="-442881465" to="156261464#10" departLane="best" type="veh_passenger"/>
    <trip id="veh83" depart="132.47" from="153225686#0" to="-624384854" departLane="best" type="veh_passenger" departSpeed="max"/>
    <trip id="veh84" depart="134.06" from="-523236410" to="824116540#1" departLane="best" type="veh_passenger"/>
    <trip id="veh85" depart="135.66" from="156261400" to="710398212" departLane="best" type="veh_passenger"/>
    <trip id="veh86" depart="137.25" from="185007810#1" to="-156261464#1" departLane="best" type="veh_passenger"/>
    <trip id="veh87" depart="138.85" from="93727607#4" to="692958945#6" departLane="best" type="veh_passenger"/>
    <trip id="veh88" depart="140.45" from="824456408#2" to="824116560#0" departLane="best" type="veh_passenger"/>
    <trip id="veh89" depart="142.04" from="710398212" to="-318745828#6" departLane="best" type="veh_passenger"/>
    <trip id="veh90" depart="143.64" from="156357489#3" to="-450150567" departLane="best" type="veh_passenger"/>
    <trip id="veh91" depart="145.23" from="124937432.3472" to="-156261505" departLane="best" type="veh_passenger" departSpeed="max"/>
    <trip id="veh92" depart="146.83" from="113135474#0" to="824816455" departLane="best" type="veh_passenger"/>
    <trip id="veh93" depart="148.43" from="-61232401#5" to="507001401#0" departLane="best" type="veh_passenger"/>
    <trip id="veh94" depart="150.02" from="156357408" to="153225684#6" departLane="best" type="veh_passenger"/>
    <trip id="veh95" depart="151.62" from="824456407#0" to="93727605#0" departLane="best" type="veh_passenger"/>
    <trip id="veh96" depart="153.21" from="186761791#0" to="442887017#4" departLane="best" type="veh_passenger"/>
    <trip id="veh97" depart="154.81" from="-318706321#3" to="-693789444" departLane="best" type="veh_passenger"/>
    <trip id="veh98" depart="156.41" from="824456408#0" to="210884222" departLane="best" type="veh_passenger"/>
    <trip id="veh99" depart="158.00" from="156591307#0" to="450149632#3" departLane="best" type="veh_passenger"/>
    <trip id="veh100" depart="159.60" from="-156261464#8" to="210884222" departLane="best" type="veh_passenger"/>
    <trip id="veh101" depart="161.19" from="156496198" to="693789447" departLane="best" type="veh_passenger"/>
    <trip id="veh102" depart="162.79" from="-318706325" to="824456407#2" departLane="best" type="veh_passenger"/>
    <trip id="veh103" depart="164.39" from="-156357473#3" to="-438807578#0" departLane="best" type="veh_passenger"/>
    <trip id="veh104" depart="165.98" from="28504751#2-AddedOnRampEdge" to="318745828#1" departLane="best" type="veh_passenger"/>
    <trip id="veh105" depart="167.58" from="-484873520" to="-156515728#1" departLane="best" type="veh_passenger"/>
    <trip id="veh106" depart="169.17" from="751455690#0" to="-521480905#7" departLane="best" type="veh_passenger" departSpeed="max"/>
    <trip id="veh107" depart="170.77" from="153225684#6" to="210884222" departLane="best" type="veh_passenger"/>
    <trip id="veh108" depart="172.37" from="156515738#4" to="824116560#2" departLane="best" type="veh_passenger"/>
    <trip id="veh109" depart="173.96" from="-44573428#1" to="442887017#0" departLane="best" type="veh_passenger"/>
    <trip id="veh110" depart="175.56" from="-504358029#2" to="113139330" departLane="best" type="veh_passenger"/>
    <trip id="veh111" depart="177.15" from="319148810#1" to="-693789447" departLane="best" type="veh_passenger"/>
    <trip id="veh112" depart="178.75" from="-718889435" to="450149632#3" departLane="best" type="veh_passenger"/>
    <trip id="veh113" depart="180.35" from="-156357444#0" to="156357408" departLane="best" type="veh_passenger"/>
    <trip id="veh114" depart="181.94" from="93727607#2" to="93727606#0" departLane="best" type="veh_passenger"/>
    <trip id="veh115" depart="183.54" from="-156357444#0" to="-450150566" departLane="best" type="veh_passenger"/>
    <trip id="veh116" depart="185.13" from="-61232401#5" to="824116560#2" departLane="best" type="veh_passenger"/>
    <trip id="veh117" depart="186.73" from="113135404" to="-318745822#0" departLane="best" type="veh_passenger"/>
    <trip id="veh118" depart="188.33" from="693789436" to="377691430#0" departLane="best" type="veh_passenger"/>
    <trip id="veh119" depart="189.92" from="686599196" to="-693789447" departLane="best" type="veh_passenger"/>
    <trip id="veh120" depart="191.52" from="318745828#5" to="824116560#3" departLane="best" type="veh_passenger"/>
    <trip id="veh121" depart="193.11" from="-156591254#1" to="-156515674#1" departLane="best" type="veh_passenger"/>
    <trip id="veh122" depart="194.71" from="-156501081" to="185007810#1" departLane="best" type="veh_passenger"/>
    <trip id="veh123" depart="196.31" from="-622812930#12" to="25044852#1" departLane="best" type="veh_passenger"/>
    <trip id="veh124" depart="197.90" from="442887017#0" to="-44573428#1" departLane="best" type="veh_passenger"/>
    <trip id="veh125" depart="199.50" from="312217346#0.2926" to="-61232401#6" departLane="best" type="veh_passenger" departSpeed="max"/>
    <trip id="veh126" depart="201.09" from="156357491#0" to="788416575#0" departLane="best" type="veh_passenger"/>
    <trip id="veh127" depart="202.69" from="710398210" to="-156357491#6" departLane="best" type="veh_passenger"/>
    <trip id="veh128" depart="204.29" from="153225686#0" to="-622812960" departLane="best" type="veh_passenger" departSpeed="max"/>
    <trip id="veh129" depart="205.88" from="-113135397#10" to="482404745#0" departLane="best" type="veh_passenger"/>
    <trip id="veh130" depart="207.48" from="312217346#0.2926" to="-61232401#4" departLane="best" type="veh_passenger" departSpeed="max"/>
    <trip id="veh131" depart="209.07" from="450150570" to="185007810#1" departLane="best" type="veh_passenger"/>
    <trip id="veh132" depart="210.67" from="153225686#0" to="-113135397#15" departLane="best" type="veh_passenger" departSpeed="max"/>
    <trip id="veh133" depart="212.26" from="-156357460#0" to="751454884#1" departLane="best" type="veh_passenger"/>
    <trip id="veh134" depart="213.86" from="751455690#0" to="156591307#1" departLane="best" type="veh_passenger" departSpeed="max"/>
    <trip id="veh135" depart="215.46" from="693789442#1" to="210884222" departLane="best" type="veh_passenger"/>
    <trip id="veh136" depart="217.05" from="-307436705#2" to="-156515752#1" departLane="best" type="veh_passenger"/>
    <trip id="veh137" depart="218.65" from="-710398212" to="751454885#5" departLane="best" type="veh_passenger"/>
    <trip id="veh138" depart="220.24" from="61232401#3" to="710398211" departLane="best" type="veh_passenger"/>
    <trip id="veh139" depart="221.84" from="751455690#0" to="-44629574#4" departLane="best" type="veh_passenger" departSpeed="max"/>
    <trip id="veh140" depart="223.44" from="-523236386" to="-156485828" departLane="best" type="veh_passenger"/>
    <trip id="veh141" depart="225.03" from="523236379" to="751454884#2" departLane="best" type="veh_passenger"/>
    <trip id="veh142" depart="226.63" from="131467340#3" to="28504751#2" departLane="best" type="veh_passenger"/>
    <trip id="veh143" depart="228.22" from="-318706321#3" to="824116560#1" departLane="best" type="veh_passenger"/>
    <trip id="veh144" depart="229.82" from="751454884#0" to="824456409#5" departLane="best" type="veh_passenger"/>
    <trip id="veh145" depart="231.42" from="622812956" to="751454884#1" departLane="best" type="veh_passenger"/>
    <trip id="veh146" depart="233.01" from="-113135397#21" to="450149632#2" departLane="best" type="veh_passenger"/>
    <trip id="veh147" depart="234.61" from="-93727607#3" to="824116560#1" departLane="best" type="veh_passenger"/>
    <trip id="veh148" depart="236.20" from="61232401#9" to="710591502#0" departLane="best" type="veh_passenger"/>
    <trip id="veh149" depart="237.80" from="622812956" to="-61232401#8" departLane="best" type="veh_passenger"/>
    <trip id="veh150" depart="239.40" from="612189119" to="-156515624" departLane="best" type="veh_passenger"/>
    <trip id="veh151" depart="240.99" from="751454884#2" to="710018510" departLane="best" type="veh_passenger"/>
    <trip id="veh152" depart="242.59" from="-450150576#12" to="620064364" departLane="best" type="veh_passenger"/>
    <trip id="veh153" depart="244.18" from="156357424" to="-710398211" departLane="best" type="veh_passenger"/>
    <trip id="veh154" depart="245.78" from="61232401#2" to="-463223680#2" departLane="best" type="veh_passenger"/>
    <trip id="veh155" depart="247.38" from="-113135397#21" to="-442887017#1" departLane="best" type="veh_passenger"/>
    <trip id="veh156" depart="248.97" from="-93727604#3" to="710591502#0" departLane="best" type="veh_passenger"/>
    <trip id="veh157" depart="250.57" from="824456407#6" to="-624384854" departLane="best" type="veh_passenger"/>
    <trip id="veh158" depart="252.16" from="312217346#1-AddedOffRampEdge" to="113139330" departLane="best" type="veh_passenger"/>
    <trip id="veh159" depart="253.76" from="824456410#0" to="156591249#1" departLane="best" type="veh_passenger"/>
    <trip id="veh160" depart="255.36" from="824116560#3" to="-156515674#1" departLane="best" type="veh_passenger"/>
    <trip id="veh161" depart="256.95" from="824456408#4" to="-319150827" departLane="best" type="veh_passenger"/>
    <trip id="veh162" depart="258.55" from="-156515624" to="153225684#7" departLane="best" type="veh_passenger"/>
    <trip id="veh163" depart="260.14" from="44629574#2" to="-718153398#7" departLane="best" type="veh_passenger"/>
    <trip id="veh164" depart="261.74" from="286606309" to="156515672" departLane="best" type="veh_passenger"/>
    <trip id="veh165" depart="263.34" from="113139310" to="210884222" departLane="best" type="veh_passenger"/>
    <trip id="veh166" depart="264.93" from="-612189119" to="438794347#1" departLane="best" type="veh_passenger"/>
    <trip id="veh167" depart="266.53" from="-113135397#0" to="824116560#0" departLane="best" type="veh_passenger"/>
    <trip id="veh168" depart="268.12" from="156591254#3" to="442905888#1" departLane="best" type="veh_passenger"/>
    <trip id="veh169" depart="269.72" from="113135397#5" to="-156357437#0" departLane="best" type="veh_passenger"/>
    <trip id="veh170" depart="271.32" from="318745828#5" to="-93727607#3" departLane="best" type="veh_passenger"/>
    <trip id="veh171" depart="272.91" from="-710591503#1" to="693789442#1" departLane="best" type="veh_passenger"/>
    <trip id="veh172" depart="274.51" from="442887017#4" to="-693793229#0" departLane="best" type="veh_passenger"/>
    <trip id="veh173" depart="276.10" from="-710398214" to="150557361" departLane="best" type="veh_passenger"/>
    <trip id="veh174" depart="277.70" from="124937432.3472" to="-693789443" departLane="best" type="veh_passenger" departSpeed="max"/>
    <trip id="veh175" depart="279.30" from="-156515752#0" to="153225684#4" departLane="best" type="veh_passenger"/>
    <trip id="veh176" depart="280.89" from="824116560#3" to="318745828#3" departLane="best" type="veh_passenger"/>
    <trip id="veh177" depart="282.49" from="751455690#0" to="26575926#2" departLane="best" type="veh_passenger" departSpeed="max"/>
    <trip id="veh178" depart="284.08" from="-693789447" to="185007810#0" departLane="best" type="veh_passenger"/>
    <trip id="veh179" depart="285.68" from="-113135397#0" to="-693789399#0" departLane="best" type="veh_passenger"/>
    <trip id="veh180" depart="287.28" from="153225686#0" to="210884222" departLane="best" type="veh_passenger" departSpeed="max"/>
    <trip id="veh181" depart="288.87" from="318745820" to="156357436" departLane="best" type="veh_passenger"/>
    <trip id="veh182" depart="290.47" from="156261400" to="-450150567" departLane="best" type="veh_passenger"/>
    <trip id="veh183" depart="292.06" from="156357473#0" to="751454885#5" departLane="best" type="veh_passenger"/>
    <trip id="veh184" depart="293.66" from="61232401#3" to="-318745834#0" departLane="best" type="veh_passenger"/>
    <trip id="veh185" depart="295.26" from="312217346#0.2926" to="113135397#10" departLane="best" type="veh_passenger" departSpeed="max"/>
    <trip id="veh186" depart="296.85" from="692953427" to="450149632#3" departLane="best" type="veh_passenger"/>
    <trip id="veh187" depart="298.45" from="319148811" to="-450150578" departLane="best" type="veh_passenger"/>
    <trip id="veh188" depart="300.04" from="-442905889" to="-113135397#21" departLane="best" type="veh_passenger"/>
    <trip id="veh189" depart="301.64" from="-521480905#3" to="156357468" departLane="best" type="veh_passenger"/>
    <trip id="veh190" depart="303.24" from="710398214" to="-156357444#0" departLane="best" type="veh_passenger"/>
    <trip id="veh191" depart="304.83" from="153225684#2" to="28504780#1" departLane="best" type="veh_passenger"/>
    <trip id="veh192" depart="306.43" from="-442887017#1" to="336620983#5" departLane="best" type="veh_passenger"/>
    <trip id="veh193" depart="308.02" from="156357493#3" to="-521480905#3" departLane="best" type="veh_passenger"/>
    <trip id="veh194" depart="309.62" from="318745822#1" to="-113135397#12" departLane="best" type="veh_passenger"/>
    <trip id="veh195" depart="311.22" from="463223680#2" to="482404745#0" departLane="best" type="veh_passenger"/>
    <trip id="veh196" depart="312.81" from="-156496198" to="153225684#7" departLane="best" type="veh_passenger"/>
    <trip id="veh197" depart="314.41" from="-319148810#0" to="824456407#0" departLane="best" type="veh_passenger"/>
    <trip id="veh198" depart="316.00" from="156515728#2" to="-156261464#0" departLane="best" type="veh_passenger"/>
    <trip id="veh199" depart="317.60" from="-523236386" to="693789442#1" departLane="best" type="veh_passenger"/>
    <trip id="veh200" depart="319.20" from="156357410" to="61232354#0" departLane="best" type="veh_passenger"/>
    <trip id="veh201" depart="320.79" from="318745834#1" to="824816456" departLane="best" type="veh_passenger"/>
    <trip id="veh202" depart="322.39" from="28504751#2-AddedOnRampEdge" to="824456405#0" departLane="best" type="veh_passenger"/>
    <trip id="veh203" depart="323.98" from="751455690#0" to="25044852#1" departLane="best" type="veh_passenger" departSpeed="max"/>
    <trip id="veh204" depart="325.58" from="442887017#4" to="156496166#0" departLane="best" type="veh_passenger"/>
    <trip id="veh205" depart="327.18" from="693789399#2" to="185007810#0" departLane="best" type="veh_passenger"/>
    <trip id="veh206" depart="328.77" from="156357473#2" to="-61232401#1" departLane="best" type="veh_passenger"/>
    <trip id="veh207" depart="330.37" from="-521480905#7" to="300825126#0" departLane="best" type="veh_passenger"/>
    <trip id="veh208" depart="331.96" from="484873520" to="156515728#3" departLane="best" type="veh_passenger"/>
    <trip id="veh209" depart="333.56" from="312217346#0.2926" to="-622812956" departLane="best" type="veh_passenger" departSpeed="max"/>
    <trip id="veh210" depart="335.16" from="-156357473#0" to="-693789398#0" departLane="best" type="veh_passenger"/>
    <trip id="veh211" depart="336.75" from="-622812930#12" to="-824456409#0" departLane="best" type="veh_passenger"/>
    <trip id="veh212" depart="338.35" from="156591290#1" to="-156591307#0" departLane="best" type="veh_passenger"/>
    <trip id="veh213" depart="339.94" from="377691430#0" to="-156357415#5" departLane="best" type="veh_passenger"/>
    <trip id="veh214" depart="341.54" from="131467341#0" to="156591290#1" departLane="best" type="veh_passenger"/>
    <trip id="veh215" depart="343.14" from="153225684#4" to="-44629574#1" departLane="best" type="veh_passenger"/>
    <trip id="veh216" depart="344.73" from="153225684#6" to="751455690#0" departLane="best" type="veh_passenger"/>
    <trip id="veh217" depart="346.33" from="25044852#0-AddedOffRampEdge" to="336620983#3" departLane="best" type="veh_passenger" departSpeed="max"/>
    <trip id="veh218" depart="347.92" from="113135482#0" to="-113135397#12" departLane="best" type="veh_passenger"/>
    <trip id="veh219" depart="349.52" from="113135397#19" to="450149632#3" departLane="best" type="veh_passenger"/>
    <trip id="veh220" depart="351.11" from="710591503#0" to="824456406" departLane="best" type="veh_passenger"/>
    <trip id="veh221" depart="352.71" from="153225684#6" to="450149632#3" departLane="best" type="veh_passenger"/>
    <trip id="veh222" depart="354.31" from="185007810#0" to="25044852#1" departLane="best" type="veh_passenger"/>
    <trip id="veh223" depart="355.90" from="153225686#0" to="-113135397#4" departLane="best" type="veh_passenger" departSpeed="max"/>
    <trip id="veh224" depart="357.50" from="113135397#10" to="318745828#7" departLane="best" type="veh_passenger"/>
    <trip id="veh225" depart="359.09" from="124937432.3472" to="-318745828#4" departLane="best" type="veh_passenger" departSpeed="max"/>
    <trip id="veh226" depart="360.69" from="156357442#2" to="-156515752#1" departLane="best" type="veh_passenger"/>
    <trip id="veh227" depart="362.29" from="312217346#0-AddedOffRampEdge" to="-113135397#26" departLane="best" type="veh_passenger"/>
    <trip id="veh228" depart="363.88" from="113551472" to="185007810#5" departLane="best" type="veh_passenger" departSpeed="max"/>
    <trip id="veh229" depart="365.48" from="-113135397#26" to="300825126#0-AddedOffRampEdge" departLane="best" type="veh_passenger"/>
    <trip id="veh230" depart="367.07" from="-156591254#3" to="156357415#4" departLane="best" type="veh_passenger"/>
    <trip id="veh231" depart="368.67" from="-156261464#0" to="113135482#0" departLane="best" type="veh_passenger"/>
    <trip id="veh232" depart="370.27" from="-44629574#5" to="-93727605#1" departLane="best" type="veh_passenger"/>
    <trip id="veh233" depart="371.86" from="484458029#0" to="113135482#0" departLane="best" type="veh_passenger"/>
    <trip id="veh234" depart="373.46" from="464709118" to="692953427" departLane="best" type="veh_passenger"/>
    <trip id="veh235" depart="375.05" from="-530571735#1" to="-156357482#0" departLane="best" type="veh_passenger"/>
    <trip id="veh236" depart="376.65" from="-113135397#2" to="156591254#1" departLane="best" type="veh_passenger"/>
    <trip id="veh237" depart="378.25" from="93727607#4" to="113135397#19" departLane="best" type="veh_passenger"/>
    <trip id="veh238" depart="379.84" from="318706321#2" to="489993172#0" departLane="best" type="veh_passenger"/>
    <trip id="veh239" depart="381.44" from="318706321#3" to="450150566" departLane="best" type="veh_passenger"/>
    <trip id="veh240" depart="383.03" from="824456405#0" to="-442905891#2" departLane="best" type="veh_passenger"/>
    <trip id="veh241" depart="384.63" from="-113135397#2" to="-318706321#1" departLane="best" type="veh_passenger"/>
    <trip id="veh242" depart="386.23" from="-156515738#4" to="318745822#0" departLane="best" type="veh_passenger"/>
    <trip id="veh243" depart="387.82" from="210884354#0" to="-450150575#2" departLane="best" type="veh_passenger" departSpeed="max"/>
    <trip id="veh244" depart="389.42" from="336620983#5" to="464709119" departLane="best" type="veh_passenger"/>
    <trip id="veh245" depart="391.01" from="-318745828#6" to="25044852#1" departLane="best" type="veh_passenger"/>
    <trip id="veh246" depart="392.61" from="450150578" to="-156515674#1" departLane="best" type="veh_passenger"/>
    <trip id="veh247" depart="394.21" from="692958943" to="824456407#3" departLane="best" type="veh_passenger"/>